<nodes>
  <!-- Центральный узел (сам перекресток), тип traffic_light означает, что там есть светофор -->
  <node id="C" x="0" y="0" type="traffic_light"/>

  <!-- Края дороги (на расстоянии 500м) -->
  <node id="N" x="0" y="500" />
  <node id="S" x="0" y="-500" />
  <node id="E" x="500" y="0" />
  <node id="W" x="-500" y="0" />
</nodes>