<configuration>
    <input>
        <net-file value="network.net.xml"/>
        <route-files value="traffic.rou.xml"/>
    </input>
    
    <time>
        <begin value="0"/>
        <end value="10800"/>
    </time>
</configuration>